Material: glass / barberini / D5336_1
Optical constants. Barberini D5336 1 glass specifications, 2010-08
Comments: 20 Â°CSun Protection Glass; Colour: green; Application: Green Crown Shade C medium tinted sunglare filter with IR- and UV-absorption filter category 2 acc. to DIN EN 1836
wavelength (um)	n
0.43583	1.5357
0.47999	1.5308
0.48613	1.5302
0.54607	1.5256
0.58756	1.5232
0.58929	1.5231
0.64385	1.5206
0.65627	1.5201
