Material: commercial plastics / CR-39 / mono
Optical constants. CR-39 Product Bulletin - PPG Industries (2006)
Comments: 20 Â°C
wavelength (um)	n
0.58929	1.452
